NOVO24/_global/LineCodes.dss
! ==========================================================
! LINECODES — gerados de SEGCON
! R1/X1: dado da BDGD (ohm/km)
! R0/X0: PREMISSA — R0=3.0 x R1, X0=3.5 x X1
!        A BDGD nao traz sequencia zero. Ver README, secao "Limitacoes".
! normamps = CNOM (capacidade nominal), emergamps = CMAX
!
! COERENCIA R1 x CNOM: 4 condutores tiveram a resistencia substituida
! por estarem mais de 7.4x acima do previsto pelo ajuste calibrado nesta
! propria base (R1 = 508.6 x CNOM^-1.279, n=3566). Cada um esta
! marcado com "!! R1 CORRIGIDO" na sua linha. Ver README.
! ==========================================================

New LineCode.CND_1_1F nphases=1 basefreq=60 units=km r1=0.51000 x1=0.25000 r0=1.53000 x0=0.87500 normamps=180.0 emergamps=234.0
New LineCode.CND_1_2F nphases=2 basefreq=60 units=km r1=0.51000 x1=0.25000 r0=1.53000 x0=0.87500 normamps=180.0 emergamps=234.0
New LineCode.CND_1_3F nphases=3 basefreq=60 units=km r1=0.51000 x1=0.25000 r0=1.53000 x0=0.87500 normamps=180.0 emergamps=234.0
New LineCode.CND_100_1F nphases=1 basefreq=60 units=km r1=1.04000 x1=0.08000 r0=3.12000 x0=0.28000 normamps=110.0 emergamps=176.0
New LineCode.CND_100_2F nphases=2 basefreq=60 units=km r1=1.04000 x1=0.08000 r0=3.12000 x0=0.28000 normamps=110.0 emergamps=176.0
New LineCode.CND_100_3F nphases=3 basefreq=60 units=km r1=1.04000 x1=0.08000 r0=3.12000 x0=0.28000 normamps=110.0 emergamps=176.0
New LineCode.CND_1000_1F nphases=1 basefreq=60 units=km r1=1.04000 x1=0.08000 r0=3.12000 x0=0.28000 normamps=110.0 emergamps=176.0
New LineCode.CND_1000_2F nphases=2 basefreq=60 units=km r1=1.04000 x1=0.08000 r0=3.12000 x0=0.28000 normamps=110.0 emergamps=176.0
New LineCode.CND_1000_3F nphases=3 basefreq=60 units=km r1=1.04000 x1=0.08000 r0=3.12000 x0=0.28000 normamps=110.0 emergamps=176.0
New LineCode.CND_1005_1F nphases=1 basefreq=60 units=km r1=0.97000 x1=0.52000 r0=2.91000 x0=1.82000 normamps=204.0 emergamps=265.2
New LineCode.CND_1005_2F nphases=2 basefreq=60 units=km r1=0.97000 x1=0.52000 r0=2.91000 x0=1.82000 normamps=204.0 emergamps=265.2
New LineCode.CND_1005_3F nphases=3 basefreq=60 units=km r1=0.97000 x1=0.52000 r0=2.91000 x0=1.82000 normamps=204.0 emergamps=265.2
New LineCode.CND_1010_1F nphases=1 basefreq=60 units=km r1=1.44000 x1=0.08000 r0=4.32000 x0=0.28000 normamps=125.0 emergamps=200.0
New LineCode.CND_1010_2F nphases=2 basefreq=60 units=km r1=1.44000 x1=0.08000 r0=4.32000 x0=0.28000 normamps=125.0 emergamps=200.0
New LineCode.CND_1010_3F nphases=3 basefreq=60 units=km r1=1.44000 x1=0.08000 r0=4.32000 x0=0.28000 normamps=125.0 emergamps=200.0
New LineCode.CND_1011_1F nphases=1 basefreq=60 units=km r1=0.51000 x1=0.25000 r0=1.53000 x0=0.87500 normamps=180.0 emergamps=234.0
New LineCode.CND_1011_2F nphases=2 basefreq=60 units=km r1=0.51000 x1=0.25000 r0=1.53000 x0=0.87500 normamps=180.0 emergamps=234.0
New LineCode.CND_1011_3F nphases=3 basefreq=60 units=km r1=0.51000 x1=0.25000 r0=1.53000 x0=0.87500 normamps=180.0 emergamps=234.0
New LineCode.CND_1014_1F nphases=1 basefreq=60 units=km r1=0.83000 x1=0.12000 r0=2.49000 x0=0.42000 normamps=95.0 emergamps=152.0
New LineCode.CND_1014_2F nphases=2 basefreq=60 units=km r1=0.83000 x1=0.12000 r0=2.49000 x0=0.42000 normamps=95.0 emergamps=152.0
New LineCode.CND_1014_3F nphases=3 basefreq=60 units=km r1=0.83000 x1=0.12000 r0=2.49000 x0=0.42000 normamps=95.0 emergamps=152.0
New LineCode.CND_1015_1F nphases=1 basefreq=60 units=km r1=1.55000 x1=0.52000 r0=4.65000 x0=1.82000 normamps=152.0 emergamps=197.6
New LineCode.CND_1015_2F nphases=2 basefreq=60 units=km r1=1.55000 x1=0.52000 r0=4.65000 x0=1.82000 normamps=152.0 emergamps=197.6
New LineCode.CND_1015_3F nphases=3 basefreq=60 units=km r1=1.55000 x1=0.52000 r0=4.65000 x0=1.82000 normamps=152.0 emergamps=197.6
New LineCode.CND_1017_1F nphases=1 basefreq=60 units=km r1=0.25000 x1=0.43000 r0=0.75000 x0=1.50500 normamps=456.0 emergamps=592.8
New LineCode.CND_1017_2F nphases=2 basefreq=60 units=km r1=0.25000 x1=0.43000 r0=0.75000 x0=1.50500 normamps=456.0 emergamps=592.8
New LineCode.CND_1017_3F nphases=3 basefreq=60 units=km r1=0.25000 x1=0.43000 r0=0.75000 x0=1.50500 normamps=456.0 emergamps=592.8
New LineCode.CND_1019_1F nphases=1 basefreq=60 units=km r1=0.97000 x1=0.52000 r0=2.91000 x0=1.82000 normamps=204.0 emergamps=265.2
New LineCode.CND_1019_2F nphases=2 basefreq=60 units=km r1=0.97000 x1=0.52000 r0=2.91000 x0=1.82000 normamps=204.0 emergamps=265.2
New LineCode.CND_1019_3F nphases=3 basefreq=60 units=km r1=0.97000 x1=0.52000 r0=2.91000 x0=1.82000 normamps=204.0 emergamps=265.2
New LineCode.CND_1020_1F nphases=1 basefreq=60 units=km r1=0.97000 x1=0.52000 r0=2.91000 x0=1.82000 normamps=204.0 emergamps=265.2
New LineCode.CND_1020_2F nphases=2 basefreq=60 units=km r1=0.97000 x1=0.52000 r0=2.91000 x0=1.82000 normamps=204.0 emergamps=265.2
New LineCode.CND_1020_3F nphases=3 basefreq=60 units=km r1=0.97000 x1=0.52000 r0=2.91000 x0=1.82000 normamps=204.0 emergamps=265.2
New LineCode.CND_1026_1F nphases=1 basefreq=60 units=km r1=0.33000 x1=0.59000 r0=0.99000 x0=2.06500 normamps=430.0 emergamps=559.0
New LineCode.CND_1026_2F nphases=2 basefreq=60 units=km r1=0.33000 x1=0.59000 r0=0.99000 x0=2.06500 normamps=430.0 emergamps=559.0
New LineCode.CND_1026_3F nphases=3 basefreq=60 units=km r1=0.33000 x1=0.59000 r0=0.99000 x0=2.06500 normamps=430.0 emergamps=559.0
New LineCode.CND_1045_1F nphases=1 basefreq=60 units=km r1=1.04000 x1=0.08000 r0=3.12000 x0=0.28000 normamps=110.0 emergamps=176.0
New LineCode.CND_1045_2F nphases=2 basefreq=60 units=km r1=1.04000 x1=0.08000 r0=3.12000 x0=0.28000 normamps=110.0 emergamps=176.0
New LineCode.CND_1045_3F nphases=3 basefreq=60 units=km r1=1.04000 x1=0.08000 r0=3.12000 x0=0.28000 normamps=110.0 emergamps=176.0
New LineCode.CND_1029_1F nphases=1 basefreq=60 units=km r1=1.44000 x1=0.08000 r0=4.32000 x0=0.28000 normamps=125.0 emergamps=200.0
New LineCode.CND_1029_2F nphases=2 basefreq=60 units=km r1=1.44000 x1=0.08000 r0=4.32000 x0=0.28000 normamps=125.0 emergamps=200.0
New LineCode.CND_1029_3F nphases=3 basefreq=60 units=km r1=1.44000 x1=0.08000 r0=4.32000 x0=0.28000 normamps=125.0 emergamps=200.0
New LineCode.CND_1031_1F nphases=1 basefreq=60 units=km r1=1.44000 x1=0.08000 r0=4.32000 x0=0.28000 normamps=125.0 emergamps=200.0
New LineCode.CND_1031_2F nphases=2 basefreq=60 units=km r1=1.44000 x1=0.08000 r0=4.32000 x0=0.28000 normamps=125.0 emergamps=200.0
New LineCode.CND_1031_3F nphases=3 basefreq=60 units=km r1=1.44000 x1=0.08000 r0=4.32000 x0=0.28000 normamps=125.0 emergamps=200.0
New LineCode.CND_1034_1F nphases=1 basefreq=60 units=km r1=1.04000 x1=0.08000 r0=3.12000 x0=0.28000 normamps=110.0 emergamps=176.0
New LineCode.CND_1034_2F nphases=2 basefreq=60 units=km r1=1.04000 x1=0.08000 r0=3.12000 x0=0.28000 normamps=110.0 emergamps=176.0
New LineCode.CND_1034_3F nphases=3 basefreq=60 units=km r1=1.04000 x1=0.08000 r0=3.12000 x0=0.28000 normamps=110.0 emergamps=176.0
New LineCode.CND_1038_1F nphases=1 basefreq=60 units=km r1=0.51000 x1=0.25000 r0=1.53000 x0=0.87500 normamps=180.0 emergamps=234.0
New LineCode.CND_1038_2F nphases=2 basefreq=60 units=km r1=0.51000 x1=0.25000 r0=1.53000 x0=0.87500 normamps=180.0 emergamps=234.0
New LineCode.CND_1038_3F nphases=3 basefreq=60 units=km r1=0.51000 x1=0.25000 r0=1.53000 x0=0.87500 normamps=180.0 emergamps=234.0
New LineCode.CND_1052_1F nphases=1 basefreq=60 units=km r1=0.97000 x1=0.52000 r0=2.91000 x0=1.82000 normamps=204.0 emergamps=265.2
New LineCode.CND_1052_2F nphases=2 basefreq=60 units=km r1=0.97000 x1=0.52000 r0=2.91000 x0=1.82000 normamps=204.0 emergamps=265.2
New LineCode.CND_1052_3F nphases=3 basefreq=60 units=km r1=0.97000 x1=0.52000 r0=2.91000 x0=1.82000 normamps=204.0 emergamps=265.2
New LineCode.CND_110_1F nphases=1 basefreq=60 units=km r1=0.15000 x1=0.09000 r0=0.45000 x0=0.31500 normamps=250.0 emergamps=290.0
New LineCode.CND_110_2F nphases=2 basefreq=60 units=km r1=0.15000 x1=0.09000 r0=0.45000 x0=0.31500 normamps=250.0 emergamps=290.0
New LineCode.CND_110_3F nphases=3 basefreq=60 units=km r1=0.15000 x1=0.09000 r0=0.45000 x0=0.31500 normamps=250.0 emergamps=290.0
New LineCode.CND_1054_1F nphases=1 basefreq=60 units=km r1=0.83000 x1=0.12000 r0=2.49000 x0=0.42000 normamps=95.0 emergamps=152.0
New LineCode.CND_1054_2F nphases=2 basefreq=60 units=km r1=0.83000 x1=0.12000 r0=2.49000 x0=0.42000 normamps=95.0 emergamps=152.0
New LineCode.CND_1054_3F nphases=3 basefreq=60 units=km r1=0.83000 x1=0.12000 r0=2.49000 x0=0.42000 normamps=95.0 emergamps=152.0
New LineCode.CND_1055_1F nphases=1 basefreq=60 units=km r1=0.81000 x1=0.27000 r0=2.43000 x0=0.94500 normamps=141.0 emergamps=183.3
New LineCode.CND_1055_2F nphases=2 basefreq=60 units=km r1=0.81000 x1=0.27000 r0=2.43000 x0=0.94500 normamps=141.0 emergamps=183.3
New LineCode.CND_1055_3F nphases=3 basefreq=60 units=km r1=0.81000 x1=0.27000 r0=2.43000 x0=0.94500 normamps=141.0 emergamps=183.3
New LineCode.CND_1056_1F nphases=1 basefreq=60 units=km r1=1.44000 x1=0.08000 r0=4.32000 x0=0.28000 normamps=125.0 emergamps=200.0
New LineCode.CND_1056_2F nphases=2 basefreq=60 units=km r1=1.44000 x1=0.08000 r0=4.32000 x0=0.28000 normamps=125.0 emergamps=200.0
New LineCode.CND_1056_3F nphases=3 basefreq=60 units=km r1=1.44000 x1=0.08000 r0=4.32000 x0=0.28000 normamps=125.0 emergamps=200.0
New LineCode.CND_1101_1F nphases=1 basefreq=60 units=km r1=0.81000 x1=0.27000 r0=2.43000 x0=0.94500 normamps=141.0 emergamps=183.3
New LineCode.CND_1101_2F nphases=2 basefreq=60 units=km r1=0.81000 x1=0.27000 r0=2.43000 x0=0.94500 normamps=141.0 emergamps=183.3
New LineCode.CND_1101_3F nphases=3 basefreq=60 units=km r1=0.81000 x1=0.27000 r0=2.43000 x0=0.94500 normamps=141.0 emergamps=183.3
New LineCode.CND_1059_1F nphases=1 basefreq=60 units=km r1=0.97000 x1=0.52000 r0=2.91000 x0=1.82000 normamps=204.0 emergamps=265.2
New LineCode.CND_1059_2F nphases=2 basefreq=60 units=km r1=0.97000 x1=0.52000 r0=2.91000 x0=1.82000 normamps=204.0 emergamps=265.2
New LineCode.CND_1059_3F nphases=3 basefreq=60 units=km r1=0.97000 x1=0.52000 r0=2.91000 x0=1.82000 normamps=204.0 emergamps=265.2
New LineCode.CND_1102_1F nphases=1 basefreq=60 units=km r1=0.51000 x1=0.25000 r0=1.53000 x0=0.87500 normamps=180.0 emergamps=234.0
New LineCode.CND_1102_2F nphases=2 basefreq=60 units=km r1=0.51000 x1=0.25000 r0=1.53000 x0=0.87500 normamps=180.0 emergamps=234.0
New LineCode.CND_1102_3F nphases=3 basefreq=60 units=km r1=0.51000 x1=0.25000 r0=1.53000 x0=0.87500 normamps=180.0 emergamps=234.0
New LineCode.CND_1063_1F nphases=1 basefreq=60 units=km r1=1.44000 x1=0.08000 r0=4.32000 x0=0.28000 normamps=125.0 emergamps=200.0
New LineCode.CND_1063_2F nphases=2 basefreq=60 units=km r1=1.44000 x1=0.08000 r0=4.32000 x0=0.28000 normamps=125.0 emergamps=200.0
New LineCode.CND_1063_3F nphases=3 basefreq=60 units=km r1=1.44000 x1=0.08000 r0=4.32000 x0=0.28000 normamps=125.0 emergamps=200.0
New LineCode.CND_1103_1F nphases=1 basefreq=60 units=km r1=0.51000 x1=0.25000 r0=1.53000 x0=0.87500 normamps=180.0 emergamps=234.0
New LineCode.CND_1103_2F nphases=2 basefreq=60 units=km r1=0.51000 x1=0.25000 r0=1.53000 x0=0.87500 normamps=180.0 emergamps=234.0
New LineCode.CND_1103_3F nphases=3 basefreq=60 units=km r1=0.51000 x1=0.25000 r0=1.53000 x0=0.87500 normamps=180.0 emergamps=234.0
New LineCode.CND_1105_1F nphases=1 basefreq=60 units=km r1=0.83000 x1=0.12000 r0=2.49000 x0=0.42000 normamps=95.0 emergamps=152.0
New LineCode.CND_1105_2F nphases=2 basefreq=60 units=km r1=0.83000 x1=0.12000 r0=2.49000 x0=0.42000 normamps=95.0 emergamps=152.0
New LineCode.CND_1105_3F nphases=3 basefreq=60 units=km r1=0.83000 x1=0.12000 r0=2.49000 x0=0.42000 normamps=95.0 emergamps=152.0
New LineCode.CND_1106_1F nphases=1 basefreq=60 units=km r1=1.04000 x1=0.08000 r0=3.12000 x0=0.28000 normamps=110.0 emergamps=176.0
New LineCode.CND_1106_2F nphases=2 basefreq=60 units=km r1=1.04000 x1=0.08000 r0=3.12000 x0=0.28000 normamps=110.0 emergamps=176.0
New LineCode.CND_1106_3F nphases=3 basefreq=60 units=km r1=1.04000 x1=0.08000 r0=3.12000 x0=0.28000 normamps=110.0 emergamps=176.0
New LineCode.CND_1068_1F nphases=1 basefreq=60 units=km r1=0.97000 x1=0.52000 r0=2.91000 x0=1.82000 normamps=204.0 emergamps=265.2
New LineCode.CND_1068_2F nphases=2 basefreq=60 units=km r1=0.97000 x1=0.52000 r0=2.91000 x0=1.82000 normamps=204.0 emergamps=265.2
New LineCode.CND_1068_3F nphases=3 basefreq=60 units=km r1=0.97000 x1=0.52000 r0=2.91000 x0=1.82000 normamps=204.0 emergamps=265.2
New LineCode.CND_1108_1F nphases=1 basefreq=60 units=km r1=0.81000 x1=0.27000 r0=2.43000 x0=0.94500 normamps=141.0 emergamps=183.3
New LineCode.CND_1108_2F nphases=2 basefreq=60 units=km r1=0.81000 x1=0.27000 r0=2.43000 x0=0.94500 normamps=141.0 emergamps=183.3
New LineCode.CND_1108_3F nphases=3 basefreq=60 units=km r1=0.81000 x1=0.27000 r0=2.43000 x0=0.94500 normamps=141.0 emergamps=183.3
New LineCode.CND_1069_1F nphases=1 basefreq=60 units=km r1=0.51000 x1=0.25000 r0=1.53000 x0=0.87500 normamps=180.0 emergamps=234.0
New LineCode.CND_1069_2F nphases=2 basefreq=60 units=km r1=0.51000 x1=0.25000 r0=1.53000 x0=0.87500 normamps=180.0 emergamps=234.0
New LineCode.CND_1069_3F nphases=3 basefreq=60 units=km r1=0.51000 x1=0.25000 r0=1.53000 x0=0.87500 normamps=180.0 emergamps=234.0
New LineCode.CND_1071_1F nphases=1 basefreq=60 units=km r1=1.55000 x1=0.52000 r0=4.65000 x0=1.82000 normamps=152.0 emergamps=197.6
New LineCode.CND_1071_2F nphases=2 basefreq=60 units=km r1=1.55000 x1=0.52000 r0=4.65000 x0=1.82000 normamps=152.0 emergamps=197.6
New LineCode.CND_1071_3F nphases=3 basefreq=60 units=km r1=1.55000 x1=0.52000 r0=4.65000 x0=1.82000 normamps=152.0 emergamps=197.6
New LineCode.CND_111_1F nphases=1 basefreq=60 units=km r1=0.81000 x1=0.27000 r0=2.43000 x0=0.94500 normamps=141.0 emergamps=183.3
New LineCode.CND_111_2F nphases=2 basefreq=60 units=km r1=0.81000 x1=0.27000 r0=2.43000 x0=0.94500 normamps=141.0 emergamps=183.3
New LineCode.CND_111_3F nphases=3 basefreq=60 units=km r1=0.81000 x1=0.27000 r0=2.43000 x0=0.94500 normamps=141.0 emergamps=183.3
New LineCode.CND_1114_1F nphases=1 basefreq=60 units=km r1=0.33000 x1=0.59000 r0=0.99000 x0=2.06500 normamps=430.0 emergamps=559.0
New LineCode.CND_1114_2F nphases=2 basefreq=60 units=km r1=0.33000 x1=0.59000 r0=0.99000 x0=2.06500 normamps=430.0 emergamps=559.0
New LineCode.CND_1114_3F nphases=3 basefreq=60 units=km r1=0.33000 x1=0.59000 r0=0.99000 x0=2.06500 normamps=430.0 emergamps=559.0
New LineCode.CND_1079_1F nphases=1 basefreq=60 units=km r1=0.97000 x1=0.52000 r0=2.91000 x0=1.82000 normamps=204.0 emergamps=265.2
New LineCode.CND_1079_2F nphases=2 basefreq=60 units=km r1=0.97000 x1=0.52000 r0=2.91000 x0=1.82000 normamps=204.0 emergamps=265.2
New LineCode.CND_1079_3F nphases=3 basefreq=60 units=km r1=0.97000 x1=0.52000 r0=2.91000 x0=1.82000 normamps=204.0 emergamps=265.2
New LineCode.CND_1116_1F nphases=1 basefreq=60 units=km r1=0.33000 x1=0.59000 r0=0.99000 x0=2.06500 normamps=430.0 emergamps=559.0
New LineCode.CND_1116_2F nphases=2 basefreq=60 units=km r1=0.33000 x1=0.59000 r0=0.99000 x0=2.06500 normamps=430.0 emergamps=559.0
New LineCode.CND_1116_3F nphases=3 basefreq=60 units=km r1=0.33000 x1=0.59000 r0=0.99000 x0=2.06500 normamps=430.0 emergamps=559.0
New LineCode.CND_108_1F nphases=1 basefreq=60 units=km r1=0.33000 x1=0.59000 r0=0.99000 x0=2.06500 normamps=430.0 emergamps=559.0
New LineCode.CND_108_2F nphases=2 basefreq=60 units=km r1=0.33000 x1=0.59000 r0=0.99000 x0=2.06500 normamps=430.0 emergamps=559.0
New LineCode.CND_108_3F nphases=3 basefreq=60 units=km r1=0.33000 x1=0.59000 r0=0.99000 x0=2.06500 normamps=430.0 emergamps=559.0
New LineCode.CND_1122_1F nphases=1 basefreq=60 units=km r1=0.15000 x1=0.09000 r0=0.45000 x0=0.31500 normamps=250.0 emergamps=290.0
New LineCode.CND_1122_2F nphases=2 basefreq=60 units=km r1=0.15000 x1=0.09000 r0=0.45000 x0=0.31500 normamps=250.0 emergamps=290.0
New LineCode.CND_1122_3F nphases=3 basefreq=60 units=km r1=0.15000 x1=0.09000 r0=0.45000 x0=0.31500 normamps=250.0 emergamps=290.0
New LineCode.CND_1083_1F nphases=1 basefreq=60 units=km r1=0.97000 x1=0.52000 r0=2.91000 x0=1.82000 normamps=204.0 emergamps=265.2
New LineCode.CND_1083_2F nphases=2 basefreq=60 units=km r1=0.97000 x1=0.52000 r0=2.91000 x0=1.82000 normamps=204.0 emergamps=265.2
New LineCode.CND_1083_3F nphases=3 basefreq=60 units=km r1=0.97000 x1=0.52000 r0=2.91000 x0=1.82000 normamps=204.0 emergamps=265.2
New LineCode.CND_1084_1F nphases=1 basefreq=60 units=km r1=1.23000 x1=0.13000 r0=3.69000 x0=0.45500 normamps=500.0 emergamps=650.0
New LineCode.CND_1084_2F nphases=2 basefreq=60 units=km r1=1.23000 x1=0.13000 r0=3.69000 x0=0.45500 normamps=500.0 emergamps=650.0
New LineCode.CND_1084_3F nphases=3 basefreq=60 units=km r1=1.23000 x1=0.13000 r0=3.69000 x0=0.45500 normamps=500.0 emergamps=650.0
New LineCode.CND_1086_1F nphases=1 basefreq=60 units=km r1=0.97000 x1=0.52000 r0=2.91000 x0=1.82000 normamps=204.0 emergamps=265.2
New LineCode.CND_1086_2F nphases=2 basefreq=60 units=km r1=0.97000 x1=0.52000 r0=2.91000 x0=1.82000 normamps=204.0 emergamps=265.2
New LineCode.CND_1086_3F nphases=3 basefreq=60 units=km r1=0.97000 x1=0.52000 r0=2.91000 x0=1.82000 normamps=204.0 emergamps=265.2
New LineCode.CND_1123_1F nphases=1 basefreq=60 units=km r1=0.97000 x1=0.52000 r0=2.91000 x0=1.82000 normamps=204.0 emergamps=265.2
New LineCode.CND_1123_2F nphases=2 basefreq=60 units=km r1=0.97000 x1=0.52000 r0=2.91000 x0=1.82000 normamps=204.0 emergamps=265.2
New LineCode.CND_1123_3F nphases=3 basefreq=60 units=km r1=0.97000 x1=0.52000 r0=2.91000 x0=1.82000 normamps=204.0 emergamps=265.2
New LineCode.CND_1127_1F nphases=1 basefreq=60 units=km r1=0.97000 x1=0.52000 r0=2.91000 x0=1.82000 normamps=204.0 emergamps=265.2
New LineCode.CND_1127_2F nphases=2 basefreq=60 units=km r1=0.97000 x1=0.52000 r0=2.91000 x0=1.82000 normamps=204.0 emergamps=265.2
New LineCode.CND_1127_3F nphases=3 basefreq=60 units=km r1=0.97000 x1=0.52000 r0=2.91000 x0=1.82000 normamps=204.0 emergamps=265.2
New LineCode.CND_109_1F nphases=1 basefreq=60 units=km r1=0.15000 x1=0.09000 r0=0.45000 x0=0.31500 normamps=250.0 emergamps=290.0
New LineCode.CND_109_2F nphases=2 basefreq=60 units=km r1=0.15000 x1=0.09000 r0=0.45000 x0=0.31500 normamps=250.0 emergamps=290.0
New LineCode.CND_109_3F nphases=3 basefreq=60 units=km r1=0.15000 x1=0.09000 r0=0.45000 x0=0.31500 normamps=250.0 emergamps=290.0
New LineCode.CND_1091_1F nphases=1 basefreq=60 units=km r1=0.97000 x1=0.52000 r0=2.91000 x0=1.82000 normamps=204.0 emergamps=265.2
New LineCode.CND_1091_2F nphases=2 basefreq=60 units=km r1=0.97000 x1=0.52000 r0=2.91000 x0=1.82000 normamps=204.0 emergamps=265.2
New LineCode.CND_1091_3F nphases=3 basefreq=60 units=km r1=0.97000 x1=0.52000 r0=2.91000 x0=1.82000 normamps=204.0 emergamps=265.2
New LineCode.CND_1128_1F nphases=1 basefreq=60 units=km r1=2.29000 x1=0.08000 r0=6.87000 x0=0.28000 normamps=95.0 emergamps=152.0
New LineCode.CND_1128_2F nphases=2 basefreq=60 units=km r1=2.29000 x1=0.08000 r0=6.87000 x0=0.28000 normamps=95.0 emergamps=152.0
New LineCode.CND_1128_3F nphases=3 basefreq=60 units=km r1=2.29000 x1=0.08000 r0=6.87000 x0=0.28000 normamps=95.0 emergamps=152.0
New LineCode.CND_1130_1F nphases=1 basefreq=60 units=km r1=0.32000 x1=0.23000 r0=0.96000 x0=0.80500 normamps=238.0 emergamps=309.4
New LineCode.CND_1130_2F nphases=2 basefreq=60 units=km r1=0.32000 x1=0.23000 r0=0.96000 x0=0.80500 normamps=238.0 emergamps=309.4
New LineCode.CND_1130_3F nphases=3 basefreq=60 units=km r1=0.32000 x1=0.23000 r0=0.96000 x0=0.80500 normamps=238.0 emergamps=309.4
New LineCode.CND_1131_1F nphases=1 basefreq=60 units=km r1=1.23000 x1=0.13000 r0=3.69000 x0=0.45500 normamps=70.0 emergamps=112.0
New LineCode.CND_1131_2F nphases=2 basefreq=60 units=km r1=1.23000 x1=0.13000 r0=3.69000 x0=0.45500 normamps=70.0 emergamps=112.0
New LineCode.CND_1131_3F nphases=3 basefreq=60 units=km r1=1.23000 x1=0.13000 r0=3.69000 x0=0.45500 normamps=70.0 emergamps=112.0
New LineCode.CND_1099_1F nphases=1 basefreq=60 units=km r1=0.97000 x1=0.52000 r0=2.91000 x0=1.82000 normamps=204.0 emergamps=265.2
New LineCode.CND_1099_2F nphases=2 basefreq=60 units=km r1=0.97000 x1=0.52000 r0=2.91000 x0=1.82000 normamps=204.0 emergamps=265.2
New LineCode.CND_1099_3F nphases=3 basefreq=60 units=km r1=0.97000 x1=0.52000 r0=2.91000 x0=1.82000 normamps=204.0 emergamps=265.2
New LineCode.CND_1134_1F nphases=1 basefreq=60 units=km r1=0.15000 x1=0.09000 r0=0.45000 x0=0.31500 normamps=250.0 emergamps=290.0
New LineCode.CND_1134_2F nphases=2 basefreq=60 units=km r1=0.15000 x1=0.09000 r0=0.45000 x0=0.31500 normamps=250.0 emergamps=290.0
New LineCode.CND_1134_3F nphases=3 basefreq=60 units=km r1=0.15000 x1=0.09000 r0=0.45000 x0=0.31500 normamps=250.0 emergamps=290.0
New LineCode.CND_1135_1F nphases=1 basefreq=60 units=km r1=1.04000 x1=0.08000 r0=3.12000 x0=0.28000 normamps=110.0 emergamps=176.0
New LineCode.CND_1135_2F nphases=2 basefreq=60 units=km r1=1.04000 x1=0.08000 r0=3.12000 x0=0.28000 normamps=110.0 emergamps=176.0
New LineCode.CND_1135_3F nphases=3 basefreq=60 units=km r1=1.04000 x1=0.08000 r0=3.12000 x0=0.28000 normamps=110.0 emergamps=176.0
New LineCode.CND_1137_1F nphases=1 basefreq=60 units=km r1=0.15000 x1=0.09000 r0=0.45000 x0=0.31500 normamps=250.0 emergamps=290.0
New LineCode.CND_1137_2F nphases=2 basefreq=60 units=km r1=0.15000 x1=0.09000 r0=0.45000 x0=0.31500 normamps=250.0 emergamps=290.0
New LineCode.CND_1137_3F nphases=3 basefreq=60 units=km r1=0.15000 x1=0.09000 r0=0.45000 x0=0.31500 normamps=250.0 emergamps=290.0
New LineCode.CND_1138_1F nphases=1 basefreq=60 units=km r1=0.83000 x1=0.12000 r0=2.49000 x0=0.42000 normamps=95.0 emergamps=152.0
New LineCode.CND_1138_2F nphases=2 basefreq=60 units=km r1=0.83000 x1=0.12000 r0=2.49000 x0=0.42000 normamps=95.0 emergamps=152.0
New LineCode.CND_1138_3F nphases=3 basefreq=60 units=km r1=0.83000 x1=0.12000 r0=2.49000 x0=0.42000 normamps=95.0 emergamps=152.0
New LineCode.CND_1139_1F nphases=1 basefreq=60 units=km r1=0.97000 x1=0.52000 r0=2.91000 x0=1.82000 normamps=204.0 emergamps=265.2
New LineCode.CND_1139_2F nphases=2 basefreq=60 units=km r1=0.97000 x1=0.52000 r0=2.91000 x0=1.82000 normamps=204.0 emergamps=265.2
New LineCode.CND_1139_3F nphases=3 basefreq=60 units=km r1=0.97000 x1=0.52000 r0=2.91000 x0=1.82000 normamps=204.0 emergamps=265.2
New LineCode.CND_119_1F nphases=1 basefreq=60 units=km r1=0.27000 x1=0.12000 r0=0.81000 x0=0.42000 normamps=272.0 emergamps=353.6
New LineCode.CND_119_2F nphases=2 basefreq=60 units=km r1=0.27000 x1=0.12000 r0=0.81000 x0=0.42000 normamps=272.0 emergamps=353.6
New LineCode.CND_119_3F nphases=3 basefreq=60 units=km r1=0.27000 x1=0.12000 r0=0.81000 x0=0.42000 normamps=272.0 emergamps=353.6
New LineCode.CND_1148_1F nphases=1 basefreq=60 units=km r1=1.55000 x1=0.52000 r0=4.65000 x0=1.82000 normamps=152.0 emergamps=197.6
New LineCode.CND_1148_2F nphases=2 basefreq=60 units=km r1=1.55000 x1=0.52000 r0=4.65000 x0=1.82000 normamps=152.0 emergamps=197.6
New LineCode.CND_1148_3F nphases=3 basefreq=60 units=km r1=1.55000 x1=0.52000 r0=4.65000 x0=1.82000 normamps=152.0 emergamps=197.6
New LineCode.CND_1190_1F nphases=1 basefreq=60 units=km r1=0.15000 x1=0.09000 r0=0.45000 x0=0.31500 normamps=250.0 emergamps=290.0
New LineCode.CND_1190_2F nphases=2 basefreq=60 units=km r1=0.15000 x1=0.09000 r0=0.45000 x0=0.31500 normamps=250.0 emergamps=290.0
New LineCode.CND_1190_3F nphases=3 basefreq=60 units=km r1=0.15000 x1=0.09000 r0=0.45000 x0=0.31500 normamps=250.0 emergamps=290.0
New LineCode.CND_1149_1F nphases=1 basefreq=60 units=km r1=1.44000 x1=0.08000 r0=4.32000 x0=0.28000 normamps=125.0 emergamps=200.0
New LineCode.CND_1149_2F nphases=2 basefreq=60 units=km r1=1.44000 x1=0.08000 r0=4.32000 x0=0.28000 normamps=125.0 emergamps=200.0
New LineCode.CND_1149_3F nphases=3 basefreq=60 units=km r1=1.44000 x1=0.08000 r0=4.32000 x0=0.28000 normamps=125.0 emergamps=200.0
New LineCode.CND_120_1F nphases=1 basefreq=60 units=km r1=0.51000 x1=0.25000 r0=1.53000 x0=0.87500 normamps=180.0 emergamps=234.0
New LineCode.CND_120_2F nphases=2 basefreq=60 units=km r1=0.51000 x1=0.25000 r0=1.53000 x0=0.87500 normamps=180.0 emergamps=234.0
New LineCode.CND_120_3F nphases=3 basefreq=60 units=km r1=0.51000 x1=0.25000 r0=1.53000 x0=0.87500 normamps=180.0 emergamps=234.0
New LineCode.CND_1154_1F nphases=1 basefreq=60 units=km r1=1.04000 x1=0.08000 r0=3.12000 x0=0.28000 normamps=110.0 emergamps=176.0
New LineCode.CND_1154_2F nphases=2 basefreq=60 units=km r1=1.04000 x1=0.08000 r0=3.12000 x0=0.28000 normamps=110.0 emergamps=176.0
New LineCode.CND_1154_3F nphases=3 basefreq=60 units=km r1=1.04000 x1=0.08000 r0=3.12000 x0=0.28000 normamps=110.0 emergamps=176.0
New LineCode.CND_1157_1F nphases=1 basefreq=60 units=km r1=1.23000 x1=0.13000 r0=3.69000 x0=0.45500 normamps=500.0 emergamps=650.0
New LineCode.CND_1157_2F nphases=2 basefreq=60 units=km r1=1.23000 x1=0.13000 r0=3.69000 x0=0.45500 normamps=500.0 emergamps=650.0
New LineCode.CND_1157_3F nphases=3 basefreq=60 units=km r1=1.23000 x1=0.13000 r0=3.69000 x0=0.45500 normamps=500.0 emergamps=650.0
New LineCode.CND_1159_1F nphases=1 basefreq=60 units=km r1=0.21000 x1=0.18000 r0=0.63000 x0=0.63000 normamps=386.0 emergamps=501.8
New LineCode.CND_1159_2F nphases=2 basefreq=60 units=km r1=0.21000 x1=0.18000 r0=0.63000 x0=0.63000 normamps=386.0 emergamps=501.8
New LineCode.CND_1159_3F nphases=3 basefreq=60 units=km r1=0.21000 x1=0.18000 r0=0.63000 x0=0.63000 normamps=386.0 emergamps=501.8
New LineCode.CND_1160_1F nphases=1 basefreq=60 units=km r1=0.81000 x1=0.27000 r0=2.43000 x0=0.94500 normamps=141.0 emergamps=183.3
New LineCode.CND_1160_2F nphases=2 basefreq=60 units=km r1=0.81000 x1=0.27000 r0=2.43000 x0=0.94500 normamps=141.0 emergamps=183.3
New LineCode.CND_1160_3F nphases=3 basefreq=60 units=km r1=0.81000 x1=0.27000 r0=2.43000 x0=0.94500 normamps=141.0 emergamps=183.3
New LineCode.CND_1203_1F nphases=1 basefreq=60 units=km r1=0.33000 x1=0.59000 r0=0.99000 x0=2.06500 normamps=430.0 emergamps=559.0
New LineCode.CND_1203_2F nphases=2 basefreq=60 units=km r1=0.33000 x1=0.59000 r0=0.99000 x0=2.06500 normamps=430.0 emergamps=559.0
New LineCode.CND_1203_3F nphases=3 basefreq=60 units=km r1=0.33000 x1=0.59000 r0=0.99000 x0=2.06500 normamps=430.0 emergamps=559.0
New LineCode.CND_1164_1F nphases=1 basefreq=60 units=km r1=1.04000 x1=0.08000 r0=3.12000 x0=0.28000 normamps=99.0 emergamps=128.7
New LineCode.CND_1164_2F nphases=2 basefreq=60 units=km r1=1.04000 x1=0.08000 r0=3.12000 x0=0.28000 normamps=99.0 emergamps=128.7
New LineCode.CND_1164_3F nphases=3 basefreq=60 units=km r1=1.04000 x1=0.08000 r0=3.12000 x0=0.28000 normamps=99.0 emergamps=128.7
New LineCode.CND_1165_1F nphases=1 basefreq=60 units=km r1=0.33000 x1=0.59000 r0=0.99000 x0=2.06500 normamps=430.0 emergamps=559.0
New LineCode.CND_1165_2F nphases=2 basefreq=60 units=km r1=0.33000 x1=0.59000 r0=0.99000 x0=2.06500 normamps=430.0 emergamps=559.0
...

! condutor generico para trechos sem TIP_CND na base
New LineCode.CND_GENERICO_1F nphases=1 basefreq=60 units=km r1=0.40000 x1=0.40000 r0=1.20000 x0=1.40000 normamps=200.0 emergamps=240.0
New LineCode.CND_GENERICO_2F nphases=2 basefreq=60 units=km r1=0.40000 x1=0.40000 r0=1.20000 x0=1.40000 normamps=200.0 emergamps=240.0
New LineCode.CND_GENERICO_3F nphases=3 basefreq=60 units=km r1=0.40000 x1=0.40000 r0=1.20000 x0=1.40000 normamps=200.0 emergamps=240.0
New LineCode.CND_IDEAL_1F nphases=1 basefreq=60 units=km r1=0.00010 x1=0.00010 r0=0.00010 x0=0.00010 normamps=9999 emergamps=9999
New LineCode.CND_IDEAL_2F nphases=2 basefreq=60 units=km r1=0.00010 x1=0.00010 r0=0.00010 x0=0.00010 normamps=9999 emergamps=9999
New LineCode.CND_IDEAL_3F nphases=3 basefreq=60 units=km r1=0.00010 x1=0.00010 r0=0.00010 x0=0.00010 normamps=9999 emergamps=9999
